output_current1.csv
link_name,currA_real,currA_imag,currB_real,currB_imag,currC_real,currC_imag
R5-12-47-1_fuse_1,71.679982,-49.645381,-78.702912,-37.840432,7.503926,88.076931
R5-12-47-1_fuse_2,0.000000,0.000000,0.000000,0.000000,0.037633,1.229804
R5-12-47-1_fuse_3,0.000000,0.000000,-6.928564,-3.874445,0.000000,0.000000
R5-12-47-1_fuse_4,0.000000,0.000000,0.000000,0.000000,0.068038,3.434579
R5-12-47-1_fuse_5,0.000000,0.000000,-1.950935,-2.635764,0.000000,0.000000
R5-12-47-1_fuse_6,15.772385,-11.090430,-17.466390,-8.244750,1.792099,19.460880
R5-12-47-1_fuse_7,4.875309,-3.355646,-5.339013,-2.584821,0.491142,5.979884
R5-12-47-1_fuse_8,3.935715,-2.712788,-4.313749,-2.084787,0.400506,4.829644
R5-12-47-1_fuse_9,10.516613,-7.316973,-12.057245,-5.819795,1.141636,14.494489
R5-12-47-1_fuse_10,120.068452,-77.096742,-114.796722,-56.003811,15.925167,122.638430
R5-12-47-1_fuse_11,10.653705,-5.982882,0.000000,0.000000,-0.130448,10.920267
R5-12-47-1_fuse_12,8.273067,-4.609720,0.000000,0.000000,0.000000,0.000000
R5-12-47-1_fuse_13,0.000000,0.000000,0.000000,0.000000,-0.031902,4.718513
R5-12-47-1_fuse_14,0.000000,0.000000,-10.483519,-5.923956,0.000000,0.000000
R5-12-47-1_fuse_15,1.735705,-0.962347,0.000000,0.000000,0.000000,0.000000
R5-12-47-1_fuse_16,0.000000,0.000000,-15.730187,-8.368967,0.640422,24.564770
R5-12-47-1_fuse_17,0.000000,0.000000,0.000000,0.000000,2.128354,63.737665
R5-12-47-1_fuse_18,0.000000,0.000000,0.000000,0.000000,0.241192,6.688983
R5-12-47-1_fuse_19,0.000000,0.000000,-44.111322,-23.623014,0.000000,0.000000
R5-12-47-1_fuse_20,0.000000,0.000000,-13.431274,-7.123444,0.000000,0.000000
R5-12-47-1_fuse_21,0.000000,-0.000000,0.000000,0.000000,0.882864,8.770312
R5-12-47-1_fuse_22,0.000000,0.000000,0.000000,0.000000,0.732121,18.903212
R5-12-47-1_fuse_23,0.000000,0.000000,0.000000,0.000000,1.468451,34.320712
R5-12-47-1_fuse_24,5.386971,-3.226238,-9.213424,-5.381555,0.024329,0.714079
R5-12-47-1_fuse_25,0.000000,0.000000,-12.840249,-7.600002,0.000000,0.000000
R5-12-47-1_fuse_26,0.000000,0.000000,-23.515442,-13.034220,0.000000,0.000000
R5-12-47-1_fuse_27,0.000000,0.000000,0.000000,0.000000,0.416705,18.080786
R5-12-47-1_fuse_28,34.181417,-20.689479,0.000000,0.000000,0.289529,5.139633
R5-12-47-1_fuse_29,0.000000,0.000000,0.000000,0.000000,0.531485,21.345464
R5-12-47-1_fuse_30,0.000000,0.000000,-34.834977,-18.813168,0.000000,0.000000
R5-12-47-1_fuse_31,7.524267,-4.643153,0.000000,0.000000,0.000000,0.000000
R5-12-47-1_fuse_32,0.000000,0.000000,0.000000,0.000000,0.590417,18.243981
R5-12-47-1_fuse_33,36.043378,-22.444168,-0.114215,-0.108948,0.000000,0.000000
R5-12-47-1_fuse_34,35.813137,-22.386455,0.000000,0.000000,0.000000,0.000000
R5-12-47-1_fuse_35,0.000000,0.000000,0.000000,0.000000,0.511365,18.212667
R5-12-47-1_fuse_36,0.000000,0.000000,-16.189987,-8.802271,0.000000,0.000000
R5-12-47-1_fuse_37,22.434479,-13.645899,0.000000,0.000000,0.000000,0.000000
R5-12-47-1_fuse_38,0.000000,0.000000,-30.652275,-16.698079,0.000000,0.000000
R5-12-47-1_fuse_39,0.000000,0.000000,0.000000,0.000000,1.617889,51.098739
R5-12-47-1_fuse_40,0.000000,0.000000,0.000000,0.000000,1.514001,42.899906
R5-12-47-1_fuse_41,0.000000,0.000000,-27.422215,-14.733421,0.000000,0.000000
R5-12-47-1_fuse_42,0.000000,0.000000,-5.999218,-3.715185,0.000000,0.000000
R5-12-47-1_fuse_43,0.000000,0.000000,-4.237212,-2.546391,0.000000,0.000000
R5-12-47-1_fuse_44,11.546051,-7.921390,-12.661307,-6.128369,1.181467,14.146042
R5-12-47-1_fuse_45,15.772385,-11.090430,-17.466390,-8.244750,1.792099,19.460880
R5-12-47-1_fuse_46,8.756850,-11.147510,-14.052119,-2.105754,5.388070,13.327628
R5-12-47-1_fuse_47,15.250902,-10.649892,-16.846584,-8.009730,1.688631,18.785756
R5-12-47-1_fuse_48,0.000000,0.000000,-3.577111,-1.969115,0.000000,0.000000
R5-12-47-1_fuse_49,0.000000,0.000000,-4.270159,-2.351253,0.000000,0.000000
R5-12-47-1_fuse_50,0.000000,0.000000,0.000000,0.000000,-0.104710,4.040574
R5-12-47-1_fuse_51,10.215522,-7.128740,-11.277383,-5.367473,1.123283,12.580362
R5-12-47-1_switch_1,0.000000,0.000000,0.000000,0.000000,0.000000,0.000000
R5-12-47-1_switch_2,400.449037,-260.135089,-456.345355,-237.802788,43.807759,630.329658
R5-12-47-1_switch_3,400.449037,-260.135089,-456.345355,-237.802788,43.807759,630.329658
R5-12-47-1_switch_4,231.620559,-156.527267,-234.944359,-115.686301,31.778502,244.041531
R5-12-47-1_switch_5,7.248757,-5.102361,-8.037416,-3.786808,0.832419,8.950255
R5-12-47-1_switch_6,171.093150,-119.510666,-179.083549,-85.390298,26.940932,192.474529
R5-12-47-1_switch_7,227.928754,-153.891021,-220.594345,-108.430096,31.559069,239.447051
R5-12-47-1_switch_9,298.175784,-197.470628,-316.208275,-161.379259,38.467976,400.222505
R5-12-47-1_switch_10,0.000000,0.000000,0.000000,0.000000,0.000000,0.000000
R5-12-47-1_switch_11,228.228727,-154.076974,-231.369754,-113.936557,31.571397,239.804347
R5-12-47-1_ol_1,71.679982,-49.645381,-78.702912,-37.840432,7.503926,88.076931
R5-12-47-1_ol_2,71.679982,-49.645381,-78.702912,-37.840432,7.503926,88.076931
R5-12-47-1_ol_3,79.922378,-53.935485,-78.702912,-37.840432,9.022326,90.340637
R5-12-47-1_ol_4,0.000000,0.000000,0.000000,0.000000,0.844504,25.794174
R5-12-47-1_ol_5,0.000000,0.000000,0.000000,0.000000,0.037633,1.229804
R5-12-47-1_ol_6,0.000000,0.000000,-10.308637,-5.586556,0.000000,0.000000
R5-12-47-1_ol_7,0.000000,0.000000,-8.316470,-4.564523,0.008824,0.353328
R5-12-47-1_ol_8,0.000000,0.000000,0.000000,0.000000,0.336657,10.434496
R5-12-47-1_ol_9,1.682904,-1.139790,-1.826357,-0.901502,0.152317,2.054445
R5-12-47-1_ol_10,10.255066,-7.068808,-11.239510,-5.431970,1.042488,12.584073
R5-12-47-1_ol_11,0.000000,0.000000,0.000000,0.000000,0.000000,0.000000
R5-12-47-1_ol_12,399.852492,-259.783814,-448.814823,-233.586626,43.707882,615.453559
R5-12-47-1_ol_13,0.000000,0.000000,-6.928564,-3.874445,0.000000,0.000000
R5-12-47-1_ol_14,400.150827,-259.959888,-456.044873,-237.631894,43.809870,624.512860
R5-12-47-1_ol_15,0.000000,0.000000,0.000000,0.000000,0.068038,3.434579
R5-12-47-1_ol_16,0.000000,0.000000,0.000000,0.000000,0.184046,7.906641
R5-12-47-1_ol_17,400.150827,-259.959888,-456.044873,-237.631894,43.809870,624.512860
R5-12-47-1_ol_18,400.449037,-260.135089,-456.345355,-237.802788,43.807759,630.329658
R5-12-47-1_ol_19,0.299863,-0.185580,-8.902612,-5.212138,0.012168,0.357033
R5-12-47-1_ol_20,5.386971,-3.226238,-9.213424,-5.381555,0.024329,0.714079
R5-12-47-1_ol_21,0.000000,-0.000000,-1.950935,-2.635765,-0.000000,-0.000000
R5-12-47-1_ol_22,228.228727,-154.076974,-231.369754,-113.936557,31.571397,239.804347
R5-12-47-1_ol_23,243.923443,-163.826789,-257.887664,-130.779066,33.295736,279.790590
R5-12-47-1_ol_24,244.223152,-164.011810,-258.197983,-130.948644,33.304286,287.688042
R5-12-47-1_ol_25,249.425441,-166.823678,-258.818144,-131.287968,34.011055,309.666312
R5-12-47-1_ol_26,-0.000000,-0.000000,-5.999218,-3.715185,0.000000,0.000000
R5-12-47-1_ol_27,0.000000,0.000000,-5.999218,-3.715185,0.000000,0.000000
R5-12-47-1_ol_28,261.270914,-174.928678,-271.788514,-137.586225,36.031583,345.194064
R5-12-47-1_ol_29,0.000000,0.000000,-4.237212,-2.546391,0.000000,0.000000
R5-12-47-1_ol_30,243.923443,-163.826789,-251.888446,-127.063882,33.295736,279.790590
R5-12-47-1_ol_31,-0.000000,-0.000000,0.000000,-0.000000,0.732121,18.903212
R5-12-47-1_ol_32,0.000000,0.000000,0.000000,0.000000,0.321712,8.296111
R5-12-47-1_ol_33,249.425441,-166.823678,-258.818144,-131.287968,34.743175,328.569524
R5-12-47-1_ol_34,237.307466,-159.939394,-247.340449,-124.348064,31.815137,245.112850
R5-12-47-1_ol_35,243.923443,-163.826789,-247.651234,-124.517491,33.295736,279.790590
R5-12-47-1_ol_36,-0.000000,-0.000000,-0.000000,-0.000000,1.468451,34.320712
R5-12-47-1_ol_37,231.920496,-156.713155,-238.127025,-118.966509,31.790807,244.398772
R5-12-47-1_ol_38,11.546051,-7.921390,-12.661307,-6.128369,1.181467,14.146042
R5-12-47-1_ol_39,11.195490,-7.810452,-15.142888,-9.697012,3.999925,17.864868
R5-12-47-1_ol_40,21.450556,-14.879260,-26.382398,-15.128983,5.042413,30.448941
R5-12-47-1_ol_41,103.286817,-69.196184,-96.483673,-46.254562,12.005321,111.557528
R5-12-47-1_ol_42,15.772385,-11.090430,-17.466390,-8.244750,1.792099,19.460880
R5-12-47-1_ol_43,15.772385,-11.090430,-17.466390,-8.244750,1.792099,19.460880
R5-12-47-1_ol_44,9.154323,-5.696685,0.000000,0.000000,0.000000,0.000000
R5-12-47-1_ol_45,155.369041,-106.615156,-159.544987,-75.323334,26.756156,171.244643
R5-12-47-1_ol_46,186.344052,-130.160558,-195.930134,-93.400028,28.629563,211.260285
R5-12-47-1_ol_47,186.344052,-130.160558,-195.930134,-93.400028,28.629563,211.260285
R5-12-47-1_ol_48,15.250902,-10.649892,-16.846584,-8.009730,1.688631,18.785756
R5-12-47-1_ol_49,160.171619,-111.372280,-163.268924,-77.252789,25.799296,177.980040
R5-12-47-1_ol_50,4.802578,-4.757124,-3.723937,-1.929455,-0.956860,6.735397
R5-12-47-1_ol_51,3.935715,-2.712788,-4.313749,-2.084787,0.400506,4.829644
R5-12-47-1_ol_52,8.756850,-11.147510,-14.052119,-2.105754,5.388070,13.327628
R5-12-47-1_ol_53,171.093150,-119.510666,-179.083549,-85.390298,26.940932,192.474529
R5-12-47-1_ol_54,10.516613,-7.316973,-12.057245,-5.819795,1.141636,14.494489
R5-12-47-1_ol_55,0.000000,0.000000,0.000000,0.000000,0.025085,0.401611
R5-12-47-1_ol_56,120.068452,-77.096742,-114.796722,-56.003811,15.925167,122.638430
R5-12-47-1_ol_57,141.519007,-91.976002,-141.179119,-71.132793,20.967580,153.087371
R5-12-47-1_ol_58,116.345388,-75.721452,-112.272421,-54.474773,14.816099,120.980349
R5-12-47-1_ol_59,103.286817,-69.196184,-96.483673,-46.254562,12.005321,111.557528
R5-12-47-1_ol_60,0.000000,0.000000,-7.299681,-3.949106,0.000000,0.000000
R5-12-47-1_ol_61,0.000000,0.000000,0.000000,0.000000,0.042486,3.803941
R5-12-47-1_ol_62,5.671364,-3.470810,0.000000,0.000000,0.000000,0.000000
R5-12-47-1_ol_63,4.900813,-2.769156,-0.310079,-0.169661,0.011690,0.356465
R5-12-47-1_ol_64,227.928754,-153.891021,-220.594345,-108.430096,31.559069,239.447051
R5-12-47-1_ol_65,227.928754,-153.891021,-220.594345,-108.430096,31.559069,239.447051
R5-12-47-1_ol_66,0.000000,0.000000,0.000000,0.000000,-0.130531,9.405226
R5-12-47-1_ol_67,8.273067,-4.609720,0.000000,0.000000,0.000000,0.000000
R5-12-47-1_ol_68,209.001982,-143.298419,-220.594345,-108.430096,31.689517,228.526784
R5-12-47-1_ol_69,209.001982,-143.298419,-207.754096,-100.830094,31.689517,228.526784
R5-12-47-1_ol_70,209.001982,-143.298419,-197.270577,-94.906138,31.721419,223.808271
R5-12-47-1_ol_71,207.266277,-142.336071,-196.896399,-94.768081,31.758655,223.724436
R5-12-47-1_ol_72,0.000000,0.000000,0.000000,0.000000,-0.040750,4.593810
R5-12-47-1_ol_73,0.000000,0.000000,0.000000,0.000000,0.008848,0.124703
R5-12-47-1_ol_74,0.000000,0.000000,-10.483519,-5.923956,0.000000,0.000000
R5-12-47-1_ol_75,0.000000,0.000000,-7.598277,-4.381559,0.000000,0.000000
R5-12-47-1_ol_76,1.735705,-0.962347,0.000000,0.000000,0.000000,0.000000
R5-12-47-1_ol_77,0.000000,0.000000,0.000000,0.000000,-0.031902,4.718513
R5-12-47-1_ol_78,0.000000,0.000000,-12.840249,-7.600002,0.000000,0.000000
R5-12-47-1_ol_79,10.653705,-5.982882,0.000000,0.000000,-0.130448,10.920267
R5-12-47-1_ol_80,398.956957,-259.252016,-424.390952,-220.040297,44.162354,586.819877
R5-12-47-1_ol_81,399.255604,-259.430129,-448.210143,-233.245118,43.866383,595.736463
R5-12-47-1_ol_82,0.000000,0.000000,-23.515442,-13.034220,0.000000,0.000000
R5-12-47-1_ol_83,0.000000,0.000000,-3.726242,-2.047156,0.000000,0.000000
R5-12-47-1_ol_84,0.000000,0.000000,-4.270159,-2.351253,0.000000,0.000000
R5-12-47-1_ol_85,0.000000,0.000000,-3.577111,-1.969115,0.000000,0.000000
R5-12-47-1_ol_86,0.000000,0.000000,0.000000,0.000000,0.416705,18.080786
R5-12-47-1_ol_87,398.658235,-259.073329,-419.816480,-217.518502,43.682965,566.460409
R5-12-47-1_ol_88,0.000000,0.000000,-3.034447,-1.643853,0.000000,0.000000
R5-12-47-1_ol_89,6.232984,-3.657259,0.000000,0.000000,0.000000,0.000000
R5-12-47-1_ol_90,0.000000,0.000000,-6.338297,-3.451043,0.000000,0.000000
R5-12-47-1_ol_91,0.000000,0.000000,0.000000,0.000000,0.219161,6.324124
R5-12-47-1_ol_92,0.000000,0.000000,0.000000,0.000000,-0.055096,7.405822
R5-12-47-1_ol_93,0.000000,0.000000,0.000000,0.000000,0.085671,11.569153
R5-12-47-1_ol_94,27.022097,-16.298204,0.000000,0.000000,0.274940,4.436356
R5-12-47-1_ol_95,2.207171,-1.362963,0.000000,0.000000,0.000000,0.000000
R5-12-47-1_ol_96,22.635087,-14.095313,-0.067135,-0.070920,0.000000,0.000000
R5-12-47-1_ol_97,10.947970,-6.819956,0.000000,0.000000,0.000000,0.000000
R5-12-47-1_ol_98,0.000000,0.000000,0.000000,0.000000,0.286019,8.217704
R5-12-47-1_ol_99,0.000000,0.000000,0.000000,0.000000,0.511365,18.212667
R5-12-47-1_ol_100,0.000000,0.000000,0.000000,0.000000,0.385511,10.940935
R5-12-47-1_ol_101,5.202290,-2.811868,-0.620160,-0.339324,0.706768,21.978270
R5-12-47-1_ol_102,0.000000,0.000000,0.000000,0.000000,0.000000,0.000000
R5-12-47-1_ol_103,0.000000,0.000000,0.000000,0.000000,-0.055096,7.405822
R5-12-47-1_ol_104,334.219162,-219.914796,-316.322490,-161.488206,40.085865,451.321244
R5-12-47-1_ol_105,262.362647,-175.084173,-316.208275,-161.379259,38.467976,400.222505
R5-12-47-1_ol_106,262.362647,-175.084173,-316.208275,-161.379259,38.226784,393.533522
R5-12-47-1_ol_107,0.000000,0.000000,0.000000,0.000000,1.514001,42.899906
R5-12-47-1_ol_108,35.813137,-22.386455,0.000000,0.000000,0.000000,0.000000
R5-12-47-1_ol_109,298.175784,-197.470628,-316.208275,-161.379259,38.467976,400.222505
R5-12-47-1_ol_110,36.043378,-22.444168,-0.114215,-0.108948,0.000000,0.000000
R5-12-47-1_ol_111,0.000000,0.000000,-15.730187,-8.368967,0.640422,24.564770
R5-12-47-1_ol_112,7.524267,-4.643153,0.000000,0.000000,0.000000,0.000000
R5-12-47-1_ol_113,0.000000,0.000000,-34.834977,-18.813168,0.000000,0.000000
R5-12-47-1_ol_114,0.000000,0.000000,0.000000,0.000000,0.531485,21.345464
R5-12-47-1_ol_115,34.181417,-20.689479,0.000000,0.000000,0.289529,5.139633
R5-12-47-1_ol_116,22.434479,-13.645899,0.000000,0.000000,0.000000,0.000000
R5-12-47-1_ol_117,356.653641,-233.560695,-362.704953,-186.555252,42.854642,539.623679
R5-12-47-1_ol_118,0.000000,0.000000,-7.754460,-4.162024,0.000000,0.000000
R5-12-47-1_ol_119,0.000000,0.000000,-30.652275,-16.698079,0.000000,0.000000
R5-12-47-1_ol_120,0.000000,0.000000,-16.189987,-8.802271,0.000000,0.000000
R5-12-47-1_ol_121,364.177908,-238.203848,-413.729917,-214.170691,42.854642,539.623679
R5-12-47-1_ol_122,0.000000,0.000000,0.000000,0.000000,0.241192,6.688983
R5-12-47-1_ol_123,0.000000,0.000000,0.000000,0.000000,1.404329,45.231724
R5-12-47-1_ol_124,0.000000,0.000000,0.000000,0.000000,0.371974,9.951957
R5-12-47-1_ol_125,0.000000,0.000000,0.000000,0.000000,0.306791,7.245741
R5-12-47-1_ol_126,262.362647,-175.084173,-316.208275,-161.379259,36.712783,350.633616
R5-12-47-1_ol_127,0.000000,0.000000,-13.431274,-7.123444,0.000000,0.000000
R5-12-47-1_ol_128,0.000000,0.000000,-30.680049,-16.499570,0.000000,0.000000
R5-12-47-1_ol_129,334.219162,-219.914796,-316.322490,-161.488206,42.214220,515.058909
R5-12-47-1_ol_130,0.000000,0.000000,0.000000,0.000000,2.128354,63.737665
R5-12-47-1_ol_131,0.000000,0.000000,0.000000,0.000000,1.617889,51.098739
R5-12-47-1_ol_132,334.219162,-219.914796,-362.704953,-186.555252,42.854642,539.623679
R5-12-47-1_ol_133,364.177908,-238.203848,-362.704953,-186.555252,42.854642,539.623679
R5-12-47-1_ol_134,364.177908,-238.203848,-413.729917,-214.170691,43.386127,560.969143
R5-12-47-1_ol_135,398.658235,-259.073329,-416.239368,-215.549387,43.682965,566.460409
R5-12-47-1_ol_136,-0.000000,-0.000000,0.000000,0.000000,0.882864,8.770312
R5-12-47-1_ol_137,0.000000,0.000000,-44.111322,-23.623014,0.000000,0.000000
R5-12-47-1_ol_138,21.450556,-14.879260,-26.382398,-15.128983,5.042413,30.448941
R5-12-47-1_ol_139,10.516613,-7.316973,-12.057245,-5.819795,1.116551,14.092878
R5-12-47-1_ol_140,399.554069,-259.607113,-448.512640,-233.415857,43.530889,605.020073
R5-12-47-1_ol_141,0.000000,0.000000,0.000000,0.000000,0.699016,15.821811
R5-12-47-1_ol_142,0.000000,0.000000,0.000000,0.000000,1.322406,27.321291
R5-12-47-1_ol_143,11.195490,-7.810452,-15.142888,-9.697012,3.999925,17.864868
R5-12-47-1_ol_144,87.514432,-58.105755,-79.017282,-38.009812,10.213222,92.096648
R5-12-47-1_ol_145,6.302784,-1.571499,-1.826357,-0.901502,2.813058,6.034150
R5-12-47-1_ol_146,6.803233,-2.593866,-12.901685,-6.517969,2.813058,6.034150
R5-12-47-1_ol_147,9.402460,-4.070199,-15.474767,-8.051034,2.797343,9.062669
R5-12-47-1_ol_148,0.000000,0.000000,-17.374638,-9.645771,0.000000,0.000000
R5-12-47-1_ol_149,0.000000,0.000000,-13.830252,-7.616893,0.000000,0.000000
R5-12-47-1_ol_150,0.000000,0.000000,-8.193390,-4.508040,0.000000,0.000000
R5-12-47-1_ol_151,10.525516,-6.306532,0.000000,0.000000,0.000000,0.000000
R5-12-47-1_ol_152,14.898203,-9.144198,0.000000,0.000000,0.000000,0.000000
R5-12-47-1_ol_153,21.703495,-13.174840,0.000000,0.000000,0.000000,0.000000
R5-12-47-1_ol_154,26.735558,-16.259114,0.000000,0.000000,0.000000,0.000000
R5-12-47-1_ol_155,31.363144,-18.956293,0.000000,0.000000,0.282221,4.788000
R5-12-47-1_ol_156,0.000000,0.000000,0.000000,0.000000,0.161424,7.348571
R5-12-47-1_ol_157,0.000000,0.000000,0.000000,0.000000,0.318584,12.232064
R5-12-47-1_ol_158,0.000000,0.000000,0.000000,0.000000,0.330516,14.699739
R5-12-47-1_ol_159,0.000000,0.000000,-12.181209,-6.602326,0.000000,0.000000
R5-12-47-1_ol_160,0.000000,0.000000,-26.836630,-14.449288,0.000000,0.000000
R5-12-47-1_ol_161,0.000000,0.000000,-31.377850,-16.930985,0.000000,0.000000
R5-12-47-1_ol_162,0.000000,0.000000,-8.623480,-4.734896,0.348841,9.856243
R5-12-47-1_ol_163,0.000000,0.000000,-8.930449,-4.905236,0.591259,17.251042
R5-12-47-1_ol_164,0.000000,0.000000,-9.343886,-4.879098,0.631676,24.211630
R5-12-47-1_ol_165,0.000000,0.000000,-15.730187,-8.368967,0.640422,24.564770
R5-12-47-1_ol_166,0.000000,0.000000,0.000000,0.000000,1.132171,34.941920
R5-12-47-1_ol_167,0.000000,0.000000,0.000000,0.000000,1.213595,37.334070
R5-12-47-1_ol_168,0.000000,0.000000,0.000000,0.000000,1.451424,44.242935
R5-12-47-1_ol_169,13.487975,-8.388193,0.000000,0.000000,0.000000,0.000000
R5-12-47-1_ol_170,15.843837,-9.854477,0.000000,0.000000,0.000000,0.000000
R5-12-47-1_ol_171,13.847859,-8.619352,0.000000,0.000000,0.000000,0.000000
R5-12-47-1_ol_172,19.663496,-12.229248,0.000000,0.000000,0.000000,0.000000
R5-12-47-1_ol_173,23.228522,-14.448229,0.000000,0.000000,0.000000,0.000000
R5-12-47-1_ol_174,0.000000,0.000000,0.000000,0.000000,1.278002,36.499927
R5-12-47-1_ol_175,0.000000,0.000000,0.000000,0.000000,0.869866,25.837668
R5-12-47-1_ol_176,0.000000,0.000000,0.000000,0.000000,0.519451,17.086976
R5-12-47-1_ol_177,17.298967,-10.488581,0.000000,0.000000,0.000000,0.000000
R5-12-47-1_ol_178,13.932190,-8.411703,0.000000,0.000000,0.000000,0.000000
R5-12-47-1_ol_179,0.000000,0.000000,-20.413472,-11.108297,0.000000,0.000000
R5-12-47-1_ol_180,0.000000,0.000000,-25.589268,-13.955077,0.000000,0.000000
R5-12-47-1_ol_181,0.000000,0.000000,-18.216622,-9.916301,0.000000,0.000000
R5-12-47-1_ol_182,0.000000,0.000000,-12.018712,-6.538718,0.000000,0.000000
R5-12-47-1_ol_183,0.000000,0.000000,0.000000,0.000000,0.676930,19.494730
R5-12-47-1_ol_184,0.000000,0.000000,0.000000,0.000000,0.444613,12.832548
R5-12-47-1_ol_185,0.000000,0.000000,0.000000,0.000000,0.269124,17.365594
R5-12-47-1_ol_186,0.000000,0.000000,-11.188344,-6.009809,0.000000,0.000000
R5-12-47-1_ol_187,0.000000,0.000000,0.000000,0.000000,0.920917,21.931916
R5-12-47-1_ol_188,0.000000,0.000000,-22.161180,-11.895885,0.000000,0.000000
R5-12-47-1_ol_189,249.425441,-166.823678,-258.818144,-131.287968,34.743175,328.569524
R5-12-47-1_ol_190,11.195490,-7.810452,-15.142888,-9.697012,3.999925,17.864868
R5-12-47-1_ol_191,198.364569,-136.356007,-195.930134,-93.400028,30.863012,214.595770
R5-12-47-1_ul_1,71.679982,-49.645381,-78.702912,-37.840432,7.503926,88.076931
R5-12-47-1_ul_2,400.449037,-260.135089,-456.345355,-237.802787,43.807759,630.329658
R5-12-47-1_ul_3,0.000000,0.000000,0.000000,0.000000,-0.104710,4.040574
R5-12-47-1_ul_4,11.546051,-7.921390,-12.661307,-6.128369,1.181467,14.146041
R5-12-47-1_ul_5,0.000000,0.000000,-5.999218,-3.715185,0.000000,0.000000
R5-12-47-1_ul_6,0.000000,0.000000,-4.237212,-2.546391,0.000000,0.000000
R5-12-47-1_ul_7,15.250902,-10.649892,-16.846584,-8.009730,1.688631,18.785756
R5-12-47-1_ul_8,8.756850,-11.147510,-14.052119,-2.105754,5.388070,13.327628
R5-12-47-1_ul_9,15.772385,-11.090430,-17.466390,-8.244750,1.792099,19.460880
R5-12-47-1_ul_10,0.000000,0.000000,-4.270159,-2.351253,0.000000,0.000000
R5-12-47-1_ul_11,0.000000,0.000000,-3.577111,-1.969115,0.000000,0.000000
R5-12-47-1_ul_12,10.215522,-7.128740,-11.277383,-5.367473,1.123283,12.580362
R5-12-47-1_tl_1,5.087232,247.488975,-5.087232,-247.488975,0.000000,-0.000000
R5-12-47-1_tl_2,0.077308,39.363762,-0.077308,-39.363762,-0.000000,0.000000
R5-12-47-1_tl_3,-235.686625,-132.587305,235.686625,132.587305,-0.000000,-0.000000
R5-12-47-1_tl_4,-270.319541,-153.243678,270.319541,153.243678,0.000000,0.000000
R5-12-47-1_tl_5,-0.217931,11.248503,0.217931,-11.248503,-0.000000,0.000000
R5-12-47-1_tl_6,6.811147,342.362434,-6.811147,-342.362434,-0.000000,0.000000
R5-12-47-1_tl_7,9.731205,-5.171589,-9.731205,5.171589,0.000000,-0.000000
R5-12-47-1_tl_8,-9.342769,-5.862836,9.342769,5.862836,-0.000000,0.000000
R5-12-47-1_tl_9,-0.993696,188.213380,0.993696,-188.213380,0.000000,-0.000000
R5-12-47-1_tl_10,-225.475760,-129.885125,225.475760,129.885125,0.000000,0.000000
R5-12-47-1_tl_11,9.726986,-5.150170,-9.726986,5.150170,-0.000000,-0.000000
R5-12-47-1_tl_12,-9.318106,-5.864110,9.318106,5.864110,-0.000000,0.000000
R5-12-47-1_tl_13,-0.996903,296.512169,0.996903,-296.512169,-0.000000,0.000000
R5-12-47-1_tl_14,0.284197,112.121699,-0.284197,-112.121699,0.000000,-0.000000
R5-12-47-1_tl_15,2.754554,259.258890,-2.754554,-259.258890,0.000000,0.000000
R5-12-47-1_tl_16,9.721031,-5.120336,-9.721031,5.120336,0.000000,0.000000
R5-12-47-1_tl_17,-9.282552,-5.865658,9.282552,5.865658,0.000000,0.000000
R5-12-47-1_tl_18,-3.433053,189.760889,3.433053,-189.760889,-0.000000,0.000000
R5-12-47-1_tl_19,9.796762,-5.475287,-9.796762,5.475287,-0.000000,-0.000000
R5-12-47-1_tl_20,-289.854450,-174.790450,289.854450,174.790450,0.000000,0.000000
R5-12-47-1_tl_21,-0.105838,11.382209,0.105838,-11.382209,-0.000000,0.000000
R5-12-47-1_tl_22,-62.176958,-88.310036,62.176958,88.310036,-0.000000,0.000000
R5-12-47-1_tl_23,9.790579,-5.456040,-9.790579,5.456040,-0.000000,-0.000000
R5-12-47-1_tl_24,-9.629854,-5.830317,9.629854,5.830317,0.000000,0.000000
R5-12-47-1_tl_25,-3.067273,259.076188,3.067273,-259.076188,0.000000,-0.000000
R5-12-47-1_tl_26,9.778305,-5.407598,-9.778305,5.407598,0.000000,-0.000000
R5-12-47-1_tl_27,-9.585653,-5.839376,9.585653,5.839376,0.000000,0.000000
R5-12-47-1_tl_28,1.818484,69.700450,-1.818484,-69.700450,0.000000,0.000000
R5-12-47-1_tl_29,7.334121,272.307408,-7.334121,-272.307408,-0.000000,0.000000
R5-12-47-1_tl_30,218.590471,-124.545194,-218.590471,124.545194,-0.000000,-0.000000
R5-12-47-1_tl_31,-9.646239,-5.825852,9.646239,5.825852,0.000000,0.000000
R5-12-47-1_tl_32,-0.106491,11.382006,0.106491,-11.382006,-0.000000,0.000000
R5-12-47-1_tl_33,9.799827,-5.485907,-9.799827,5.485907,0.000000,-0.000000
R5-12-47-1_tl_34,-39.416117,-21.888774,39.416117,21.888774,0.000000,-0.000000
R5-12-47-1_tl_35,-0.101153,11.389644,0.101153,-11.389644,0.000000,-0.000000
R5-12-47-1_tl_36,302.554789,-183.260021,-302.554789,183.260021,-0.000000,-0.000000
R5-12-47-1_tl_37,43.883794,-28.608501,-43.883794,28.608501,-0.000000,-0.000000
R5-12-47-1_tl_38,-9.758956,-5.819686,9.758956,5.819686,-0.000000,0.000000
R5-12-47-1_tl_39,-0.060834,11.492296,0.060834,-11.492296,0.000000,-0.000000
R5-12-47-1_tl_40,-236.538896,-132.799986,236.538896,132.799986,0.000000,0.000000
R5-12-47-1_tl_41,-0.561075,124.439984,0.561075,-124.439984,-0.000000,0.000000
R5-12-47-1_tl_42,187.144346,-110.676444,-187.144346,110.676444,-0.000000,-0.000000
R5-12-47-1_tl_43,158.413709,-85.681505,-158.413709,85.681505,-0.000000,-0.000000
R5-12-47-1_tl_44,-9.621416,-5.832806,9.621416,5.832806,0.000000,-0.000000
R5-12-47-1_tl_45,-0.121933,11.361779,0.121933,-11.361779,-0.000000,0.000000
R5-12-47-1_tl_46,348.201237,-185.613550,-348.201237,185.613550,-0.000000,0.000000
R5-12-47-1_tl_47,-1.148901,48.808772,1.148901,-48.808772,0.000000,-0.000000
R5-12-47-1_tl_48,-8.512429,302.093129,8.512429,-302.093129,0.000000,0.000000
R5-12-47-1_tl_49,270.637355,-145.749201,-270.637355,145.749201,0.000000,0.000000
R5-12-47-1_tl_50,219.180246,-143.904494,-219.180246,143.904494,0.000000,-0.000000
R5-12-47-1_tl_51,-23.024313,-34.480166,23.024313,34.480166,-0.000000,-0.000000
R5-12-47-1_tl_52,-0.084424,11.428984,0.084424,-11.428984,0.000000,0.000000
R5-12-47-1_tl_53,-3.118099,136.776599,3.118099,-136.776599,0.000000,-0.000000
R5-12-47-1_tl_54,-307.341637,-178.254884,307.341637,178.254884,0.000000,-0.000000
R5-12-47-1_tl_55,-173.081814,-103.381541,173.081814,103.381541,-0.000000,-0.000000
R5-12-47-1_tl_56,51.972077,-27.215340,-51.972077,27.215340,0.000000,0.000000
R5-12-47-1_tl_57,9.745220,-5.239439,-9.745220,5.239439,-0.000000,-0.000000
R5-12-47-1_tl_58,-9.418038,-5.857042,9.418038,5.857042,-0.000000,0.000000
R5-12-47-1_tl_59,0.622550,74.259253,-0.622550,-74.259253,-0.000000,-0.000000
R5-12-47-1_tl_60,9.741535,-5.219837,-9.741535,5.219837,-0.000000,0.000000
R5-12-47-1_tl_61,-9.398088,-5.858581,9.398088,5.858581,0.000000,-0.000000
R5-12-47-1_tl_62,-14.215065,291.833057,14.215065,-291.833057,-0.000000,0.000000
R5-12-47-1_tl_63,-120.566358,-68.802374,120.566358,68.802374,-0.000000,0.000000
R5-12-47-1_tl_64,-98.131098,-55.341873,98.131098,55.341873,0.000000,0.000000
R5-12-47-1_tl_65,205.813235,-116.874818,-205.813235,116.874818,0.000000,0.000000
R5-12-47-1_tl_66,-205.950961,-115.851956,205.950961,115.851956,0.000000,0.000000
R5-12-47-1_tl_67,3.923373,206.759977,-3.923373,-206.759977,-0.000000,-0.000000
R5-12-47-1_tl_68,2.707495,136.400232,-2.707495,-136.400232,-0.000000,-0.000000
R5-12-47-1_tl_69,-5.446326,132.323661,5.446326,-132.323661,0.000000,-0.000000
R5-12-47-1_tl_70,8.323986,-0.541392,-8.323986,0.541392,-0.000000,-0.000000
R5-12-47-1_tl_71,6.417957,129.597063,-6.417957,-129.597063,0.000000,0.000000
R5-12-47-1_tl_72,72.811001,-43.288526,-72.811001,43.288526,-0.000000,0.000000
R5-12-47-1_tl_73,219.951279,-133.610690,-219.951279,133.610690,-0.000000,0.000000
R5-12-47-1_tl_74,-1.501944,-2.507154,1.501944,2.507154,0.000000,-0.000000
R5-12-47-1_tl_75,361.325194,-215.158200,-361.325194,215.158200,-0.000000,-0.000000
R5-12-47-1_tl_76,6.148146,269.679063,-6.148146,-269.679063,0.000000,-0.000000
R5-12-47-1_tl_77,8.435283,359.249430,-8.435283,-359.249430,0.000000,-0.000000
R5-12-47-1_tl_78,8.480778,-0.632273,-8.480778,0.632273,-0.000000,-0.000000
R5-12-47-1_tl_79,-9.621484,-5.832870,9.621484,5.832870,0.000000,-0.000000
R5-12-47-1_tl_80,3.578074,95.857995,-3.578074,-95.857995,0.000000,-0.000000
R5-12-47-1_tl_81,-0.309567,107.712827,0.309567,-107.712827,0.000000,0.000000
R5-12-47-1_tl_82,-251.679597,-139.887244,251.679597,139.887244,-0.000000,0.000000
R5-12-47-1_tl_83,4.654816,218.891866,-4.654816,-218.891866,0.000000,0.000000
R5-12-47-1_tl_84,3.763030,193.818926,-3.763030,-193.818926,0.000000,-0.000000
R5-12-47-1_tl_85,7.983658,326.341568,-7.983658,-326.341568,-0.000000,0.000000
R5-12-47-1_tl_86,6.840857,237.438659,-6.840857,-237.438659,0.000000,0.000000
R5-12-47-1_tl_87,35.930254,-3.608750,-35.930254,3.608750,-0.000000,-0.000000
R5-12-47-1_tl_88,-9.563630,-5.843118,9.563630,5.843118,0.000000,-0.000000
R5-12-47-1_tl_89,20.331208,178.394632,-20.331208,-178.394632,-0.000000,0.000000
R5-12-47-1_tl_90,-435.174613,-240.234920,435.174613,240.234920,-0.000000,0.000000
R5-12-47-1_tl_91,-105.567536,-59.410327,105.567536,59.410327,-0.000000,-0.000000
R5-12-47-1_tl_92,9.754107,-5.284320,-9.754107,5.284320,-0.000000,-0.000000
R5-12-47-1_tl_93,-77.390596,-44.048784,77.390596,44.048784,-0.000000,0.000000
R5-12-47-1_tl_94,-0.268647,11.187247,0.268647,-11.187247,-0.000000,0.000000
R5-12-47-1_tl_95,9.842303,-5.567676,-9.842303,5.567676,-0.000000,-0.000000
R5-12-47-1_tl_96,-16.544890,-10.296159,16.544890,10.296159,0.000000,-0.000000
R5-12-47-1_tl_97,-0.756223,33.095641,0.756223,-33.095641,-0.000000,-0.000000
R5-12-47-1_tl_98,9.733205,-5.181207,-9.733205,5.181207,0.000000,-0.000000
R5-12-47-1_tl_99,-9.353824,-5.862109,9.353824,5.862109,0.000000,0.000000
R5-12-47-1_tl_100,-15.528406,303.991523,15.528406,-303.991523,-0.000000,0.000000
R5-12-47-1_tl_101,9.260323,348.149197,-9.260323,-348.149197,0.000000,0.000000
R5-12-47-1_tl_102,-194.728454,-124.649448,194.728454,124.649448,0.000000,0.000000
R5-12-47-1_tl_103,-137.601859,-85.414115,137.601859,85.414115,-0.000000,0.000000
R5-12-47-1_tl_104,8.659808,280.709130,-8.659808,-280.709130,0.000000,-0.000000
R5-12-47-1_tl_105,12.103396,374.519641,-12.103396,-374.519641,-0.000000,0.000000
R5-12-47-1_tl_106,1.499622,229.254309,-1.499622,-229.254309,0.000000,-0.000000
R5-12-47-1_tl_107,167.809120,-96.418466,-167.809120,96.418466,-0.000000,-0.000000
R5-12-47-1_tl_108,-9.647192,-5.825534,9.647192,5.825534,-0.000000,-0.000000
R5-12-47-1_tl_109,-0.106015,11.382661,0.106015,-11.382661,-0.000000,0.000000
R5-12-47-1_tl_110,4.931192,-2.475817,-4.931192,2.475817,-0.000000,-0.000000
R5-12-47-1_tl_111,-9.772815,-5.826238,9.772815,5.826238,-0.000000,0.000000
R5-12-47-1_tl_112,0.769705,1.143622,-0.769705,-1.143622,0.000000,-0.000000
R5-12-47-1_tl_113,57.206192,-31.309666,-57.206192,31.309666,-0.000000,-0.000000
R5-12-47-1_tl_114,-55.605038,-34.325303,55.605038,34.325303,-0.000000,-0.000000
R5-12-47-1_tl_115,-1.360753,66.078145,1.360753,-66.078145,0.000000,-0.000000
R5-12-47-1_tl_116,-169.589730,-108.158695,169.589730,108.158695,-0.000000,0.000000
R5-12-47-1_tl_117,-199.340751,-113.756154,199.340751,113.756154,0.000000,0.000000
R5-12-47-1_tl_118,-115.048349,-68.121549,115.048349,68.121549,-0.000000,-0.000000
R5-12-47-1_tl_119,-182.602930,-104.469744,182.602930,104.469744,-0.000000,-0.000000
R5-12-47-1_tl_120,-145.177030,-82.544094,145.177030,82.544094,0.000000,-0.000000
R5-12-47-1_tl_121,3.346198,333.622109,-3.346198,-333.622109,0.000000,-0.000000
R5-12-47-1_tl_122,-138.637887,-78.904947,138.637887,78.904947,0.000000,-0.000000
R5-12-47-1_tl_123,-116.140760,-66.138607,116.140760,66.138607,0.000000,0.000000
R5-12-47-1_tl_124,141.708723,-84.826637,-141.708723,84.826637,0.000000,0.000000
R5-12-47-1_tl_125,304.928374,-182.472046,-304.928374,182.472046,-0.000000,-0.000000
R5-12-47-1_tl_126,224.807311,-129.271710,-224.807311,129.271710,0.000000,-0.000000
R5-12-47-1_tl_127,165.908213,-97.833750,-165.908213,97.833750,-0.000000,0.000000
R5-12-47-1_tl_128,143.308739,-85.113924,-143.308739,85.113924,0.000000,0.000000
R5-12-47-1_tl_129,-0.269564,11.187600,0.269564,-11.187600,0.000000,-0.000000
R5-12-47-1_tl_130,92.922236,-54.879265,-92.922236,54.879265,-0.000000,0.000000
R5-12-47-1_tl_131,-0.268690,11.187263,0.268690,-11.187263,0.000000,-0.000000
R5-12-47-1_tl_132,1.977833,115.826181,-1.977833,-115.826181,0.000000,0.000000
R5-12-47-1_tl_133,2.922686,159.890695,-2.922686,-159.890695,0.000000,-0.000000
R5-12-47-1_tl_134,-1.061710,80.553677,1.061710,-80.553677,0.000000,0.000000
R5-12-47-1_tl_135,3.316100,217.413138,-3.316100,-217.413138,-0.000000,0.000000
R5-12-47-1_tl_136,-157.553838,-89.351749,157.553838,89.351749,-0.000000,0.000000
R5-12-47-1_tl_137,-475.783779,-264.245040,475.783779,264.245040,0.000000,-0.000000
R5-12-47-1_tl_138,-147.662417,-83.246161,147.662417,83.246161,0.000000,-0.000000
R5-12-47-1_tl_139,-112.170487,-63.257611,112.170487,63.257611,-0.000000,0.000000
R5-12-47-1_tl_140,-9.513280,-5.853369,9.513280,5.853369,0.000000,0.000000
R5-12-47-1_tl_141,6.917228,311.402546,-6.917228,-311.402546,0.000000,-0.000000
R5-12-47-1_tl_142,-9.511867,-5.852327,9.511867,5.852327,-0.000000,0.000000
R5-12-47-1_tl_143,4.695786,242.315886,-4.695786,-242.315886,-0.000000,0.000000
R5-12-47-1_tl_144,175.389456,-104.345454,-175.389456,104.345454,0.000000,0.000000
R5-12-47-1_tl_145,-11.758368,0.601401,11.758368,-0.601401,0.000000,-0.000000
R5-12-47-1_tl_146,-1.785493,205.180805,1.785493,-205.180805,-0.000000,0.000000
R5-12-47-1_tl_147,-207.538915,-117.142340,207.538915,117.142340,-0.000000,0.000000
R5-12-47-1_tl_148,-0.220659,11.241837,0.220659,-11.241837,-0.000000,0.000000
R5-12-47-1_tl_149,5.076689,256.101558,-5.076689,-256.101558,0.000000,-0.000000
R5-12-47-1_tl_150,5.181127,299.616295,-5.181127,-299.616295,-0.000000,-0.000000
R5-12-47-1_tl_151,1.247966,78.057189,-1.247966,-78.057189,0.000000,0.000000
R5-12-47-1_tl_152,4.543207,226.181004,-4.543207,-226.181004,-0.000000,0.000000
R5-12-47-1_tl_153,143.083298,-86.233412,-143.083298,86.233412,-0.000000,0.000000
R5-12-47-1_tl_154,77.579854,-46.021179,-77.579854,46.021179,0.000000,-0.000000
R5-12-47-1_tl_155,438.707767,-263.395683,-438.707767,263.395683,-0.000000,-0.000000
R5-12-47-1_tl_156,-0.864500,-1.446503,0.864500,1.446503,0.000000,-0.000000
R5-12-47-1_tl_157,95.651862,-57.087676,-95.651862,57.087676,0.000000,0.000000
R5-12-47-1_tl_158,191.965403,-115.305732,-191.965403,115.305732,-0.000000,0.000000
R5-12-47-1_tl_159,117.554054,-70.535864,-117.554054,70.535864,-0.000000,0.000000
R5-12-47-1_tl_160,415.692217,-252.301473,-415.692217,252.301473,-0.000000,-0.000000
R5-12-47-1_tl_161,9.182556,349.947357,-9.182556,-349.947357,-0.000000,0.000000
R5-12-47-1_tl_162,7.265150,286.451506,-7.265150,-286.451506,-0.000000,0.000000
R5-12-47-1_tl_163,3.380017,290.391769,-3.380017,-290.391769,0.000000,0.000000
R5-12-47-1_tl_164,0.827931,238.289255,-0.827931,-238.289255,-0.000000,0.000000
R5-12-47-1_tl_165,-190.759021,-108.034254,190.759021,108.034254,0.000000,0.000000
R5-12-47-1_tl_166,169.358172,-100.263956,-169.358172,100.263956,-0.000000,-0.000000
R5-12-47-1_tl_167,111.150471,-66.301371,-111.150471,66.301371,-0.000000,-0.000000
R5-12-47-1_tl_168,112.476037,-67.241860,-112.476037,67.241860,-0.000000,-0.000000
R5-12-47-1_tl_169,-163.583509,-92.336196,163.583509,92.336196,-0.000000,-0.000000
R5-12-47-1_tl_170,-71.008770,-40.140835,71.008770,40.140835,-0.000000,0.000000
R5-12-47-1_tl_171,-167.332826,-95.782727,167.332826,95.782727,-0.000000,0.000000
R5-12-47-1_tl_172,-201.285803,-113.412344,201.285803,113.412344,-0.000000,-0.000000
R5-12-47-1_tl_173,-184.097786,-103.783254,184.097786,103.783254,0.000000,0.000000
R5-12-47-1_tl_174,4.359468,217.986615,-4.359468,-217.986615,0.000000,-0.000000
R5-12-47-1_tl_175,4.132041,212.880806,-4.132041,-212.880806,0.000000,-0.000000
R5-12-47-1_tl_176,3.735622,191.581348,-3.735622,-191.581348,-0.000000,0.000000
R5-12-47-1_tl_177,2.738927,189.243301,-2.738927,-189.243301,0.000000,-0.000000
R5-12-47-1_tl_178,-111.416610,-62.121667,111.416610,62.121667,-0.000000,-0.000000
R5-12-47-1_tl_179,9.616836,390.348223,-9.616836,-390.348223,0.000000,-0.000000
R5-12-47-1_tl_180,-353.508242,-199.128581,353.508242,199.128581,0.000000,0.000000
R5-12-47-1_tl_181,4.482182,209.297682,-4.482182,-209.297682,0.000000,-0.000000
R5-12-47-1_tl_182,-170.183802,-95.485132,170.183802,95.485132,-0.000000,0.000000
R5-12-47-1_tl_183,9.801115,-5.488168,-9.801115,5.488168,0.000000,0.000000
R5-12-47-1_tl_184,-198.396677,-105.265270,198.396677,105.265270,-0.000000,0.000000
R5-12-47-1_tl_185,-0.100339,11.391587,0.100339,-11.391587,-0.000000,0.000000
R5-12-47-1_reg_1,400.449037,-260.135089,-456.345355,-237.802788,43.807759,630.329658
R5-12-47-1_xfmr_1,0.000000,0.000000,0.000000,0.000000,0.254087,7.550193
R5-12-47-1_xfmr_2,0.000000,0.000000,0.000000,0.000000,0.037635,1.217996
R5-12-47-1_xfmr_3,0.000000,0.000000,-7.274190,-3.942703,0.000000,0.000000
R5-12-47-1_xfmr_4,0.000000,0.000000,-8.316470,-4.564523,0.000000,0.000000
R5-12-47-1_xfmr_5,0.000000,0.000000,0.000000,0.000000,0.008824,0.353328
R5-12-47-1_xfmr_6,0.000000,0.000000,0.000000,0.000000,0.336657,10.434496
R5-12-47-1_xfmr_7,0.298423,-0.176702,0.000000,0.000000,0.000000,0.000000
R5-12-47-1_xfmr_8,0.000000,0.000000,-0.302184,-0.170769,0.000000,0.000000
R5-12-47-1_xfmr_9,0.000000,0.000000,0.000000,0.000000,0.071323,5.769103
R5-12-47-1_xfmr_10,0.000000,0.000000,-6.928564,-3.874445,0.000000,0.000000
R5-12-47-1_xfmr_11,0.298335,-0.176074,0.000000,0.000000,0.000000,0.000000
R5-12-47-1_xfmr_12,0.000000,0.000000,-0.301486,-0.170823,0.000000,0.000000
R5-12-47-1_xfmr_13,0.000000,0.000000,0.000000,0.000000,0.101988,9.059301
R5-12-47-1_xfmr_14,0.000000,0.000000,0.000000,0.000000,0.068038,3.434579
R5-12-47-1_xfmr_15,0.000000,0.000000,0.000000,0.000000,0.184046,7.906641
R5-12-47-1_xfmr_16,0.298210,-0.175200,0.000000,0.000000,0.000000,0.000000
R5-12-47-1_xfmr_17,0.000000,0.000000,-0.300481,-0.170894,0.000000,0.000000
R5-12-47-1_xfmr_18,0.000000,0.000000,0.000000,0.000000,-0.002111,5.816798
R5-12-47-1_xfmr_19,0.299863,-0.185580,0.000000,0.000000,0.000000,0.000000
R5-12-47-1_xfmr_20,0.000000,0.000000,-8.902612,-5.212138,0.000000,0.000000
R5-12-47-1_xfmr_21,0.000000,0.000000,0.000000,0.000000,0.012168,0.357033
R5-12-47-1_xfmr_22,0.000000,0.000000,-1.950935,-2.635765,0.000000,0.000000
R5-12-47-1_xfmr_23,0.299708,-0.185021,0.000000,0.000000,0.000000,0.000000
R5-12-47-1_xfmr_24,0.000000,0.000000,-0.310319,-0.169577,0.000000,0.000000
R5-12-47-1_xfmr_25,0.000000,0.000000,0.000000,0.000000,0.008551,7.897452
R5-12-47-1_xfmr_26,0.299421,-0.183609,0.000000,0.000000,0.000000,0.000000
R5-12-47-1_xfmr_27,0.000000,0.000000,-0.309064,-0.169889,0.000000,0.000000
R5-12-47-1_xfmr_28,0.000000,0.000000,0.000000,0.000000,0.098613,2.140143
R5-12-47-1_xfmr_29,0.000000,0.000000,0.000000,0.000000,0.321712,8.296111
R5-12-47-1_xfmr_30,6.615977,-3.887396,0.000000,0.000000,0.000000,0.000000
R5-12-47-1_xfmr_31,0.000000,0.000000,-0.310785,-0.169427,0.000000,0.000000
R5-12-47-1_xfmr_32,0.000000,0.000000,0.000000,0.000000,0.012148,0.357028
R5-12-47-1_xfmr_33,0.299937,-0.185889,0.000000,0.000000,0.000000,0.000000
R5-12-47-1_xfmr_34,0.000000,0.000000,-1.231730,-0.644444,0.000000,0.000000
R5-12-47-1_xfmr_35,0.000000,0.000000,0.000000,0.000000,0.012305,0.357241
R5-12-47-1_xfmr_36,9.154323,-5.696685,0.000000,0.000000,0.000000,0.000000
R5-12-47-1_xfmr_37,1.330524,-0.907401,0.000000,0.000000,0.000000,0.000000
R5-12-47-1_xfmr_38,0.000000,0.000000,-0.313981,-0.169177,0.000000,0.000000
R5-12-47-1_xfmr_39,0.000000,0.000000,0.000000,0.000000,0.013435,0.360152
R5-12-47-1_xfmr_40,0.000000,0.000000,-7.299681,-3.949106,0.000000,0.000000
R5-12-47-1_xfmr_41,0.000000,0.000000,0.000000,0.000000,0.042486,3.803941
R5-12-47-1_xfmr_42,5.671364,-3.470810,0.000000,0.000000,0.000000,0.000000
R5-12-47-1_xfmr_43,4.804549,-2.717614,0.000000,0.000000,0.000000,0.000000
R5-12-47-1_xfmr_44,0.000000,0.000000,-0.310079,-0.169661,0.000000,0.000000
R5-12-47-1_xfmr_45,0.000000,0.000000,0.000000,0.000000,0.011690,0.356465
R5-12-47-1_xfmr_46,10.549465,-5.928579,0.000000,0.000000,0.000000,0.000000
R5-12-47-1_xfmr_47,0.000000,0.000000,0.000000,0.000000,0.000486,1.500477
R5-12-47-1_xfmr_48,0.000000,0.000000,0.000000,0.000000,-0.124780,9.219626
R5-12-47-1_xfmr_49,8.191465,-4.566442,0.000000,0.000000,0.000000,0.000000
R5-12-47-1_xfmr_50,6.633167,-4.469731,0.000000,0.000000,0.000000,0.000000
R5-12-47-1_xfmr_51,0.000000,0.000000,-0.738087,-1.023353,0.000000,0.000000
R5-12-47-1_xfmr_52,0.000000,0.000000,0.000000,0.000000,0.012778,0.358354
R5-12-47-1_xfmr_53,0.000000,0.000000,0.000000,0.000000,-0.034716,4.173528
R5-12-47-1_xfmr_54,0.000000,0.000000,-9.428615,-5.316233,0.000000,0.000000
R5-12-47-1_xfmr_55,0.000000,0.000000,-5.347105,-3.074625,0.000000,0.000000
R5-12-47-1_xfmr_56,1.578826,-0.878581,0.000000,0.000000,0.000000,0.000000
R5-12-47-1_xfmr_57,0.298722,-0.178687,0.000000,0.000000,0.000000,0.000000
R5-12-47-1_xfmr_58,0.000000,0.000000,-0.304314,-0.170541,0.000000,0.000000
R5-12-47-1_xfmr_59,0.000000,0.000000,0.000000,0.000000,0.062684,2.278682
R5-12-47-1_xfmr_60,0.298647,-0.178113,0.000000,0.000000,0.000000,0.000000
R5-12-47-1_xfmr_61,0.000000,0.000000,-0.303749,-0.170601,0.000000,0.000000
R5-12-47-1_xfmr_62,0.000000,0.000000,0.000000,0.000000,-0.295971,8.916586
R5-12-47-1_xfmr_63,0.000000,0.000000,-3.726242,-2.047156,0.000000,0.000000
R5-12-47-1_xfmr_64,0.000000,0.000000,-3.034447,-1.643853,0.000000,0.000000
R5-12-47-1_xfmr_65,6.232984,-3.657259,0.000000,0.000000,0.000000,0.000000
R5-12-47-1_xfmr_66,0.000000,0.000000,-6.338297,-3.451043,0.000000,0.000000
R5-12-47-1_xfmr_67,0.000000,0.000000,0.000000,0.000000,0.219161,6.324124
R5-12-47-1_xfmr_68,0.000000,0.000000,0.000000,0.000000,0.140767,4.163332
R5-12-47-1_xfmr_69,0.000000,0.000000,0.000000,0.000000,-0.104710,4.040574
R5-12-47-1_xfmr_70,0.255828,-0.037253,0.000000,0.000000,0.000000,0.000000
R5-12-47-1_xfmr_71,0.000000,0.000000,0.000000,0.000000,0.252599,3.959438
R5-12-47-1_xfmr_72,2.207171,-1.362963,0.000000,0.000000,0.000000,0.000000
R5-12-47-1_xfmr_73,6.658295,-4.160977,0.000000,0.000000,0.000000,0.000000
R5-12-47-1_xfmr_74,0.000000,0.000000,-0.065889,-0.069579,0.000000,0.000000
R5-12-47-1_xfmr_75,10.947970,-6.819956,0.000000,0.000000,0.000000,0.000000
R5-12-47-1_xfmr_76,0.000000,0.000000,0.000000,0.000000,0.286019,8.217704
R5-12-47-1_xfmr_77,0.000000,0.000000,0.000000,0.000000,0.385511,10.940935
R5-12-47-1_xfmr_78,0.260265,-0.039857,0.000000,0.000000,0.000000,0.000000
R5-12-47-1_xfmr_79,0.000000,0.000000,-0.310081,-0.169663,0.000000,0.000000
R5-12-47-1_xfmr_80,0.000000,0.000000,0.000000,0.000000,0.167051,2.942082
R5-12-47-1_xfmr_81,0.000000,0.000000,0.000000,0.000000,0.049985,3.299679
R5-12-47-1_xfmr_82,0.000000,0.000000,-7.754460,-4.162024,0.000000,0.000000
R5-12-47-1_xfmr_83,0.000000,0.000000,0.000000,0.000000,0.241192,6.688983
R5-12-47-1_xfmr_84,0.000000,0.000000,0.000000,0.000000,0.214288,5.934213
R5-12-47-1_xfmr_85,0.000000,0.000000,0.000000,0.000000,0.371974,9.951957
R5-12-47-1_xfmr_86,0.000000,0.000000,0.000000,0.000000,0.306791,7.245741
R5-12-47-1_xfmr_87,1.091733,-0.155496,0.000000,0.000000,0.000000,0.000000
R5-12-47-1_xfmr_88,0.000000,0.000000,-0.308439,-0.170019,0.000000,0.000000
R5-12-47-1_xfmr_89,0.000000,0.000000,0.000000,0.000000,0.681200,5.439552
R5-12-47-1_xfmr_90,0.000000,0.000000,-13.431274,-7.123444,0.000000,0.000000
R5-12-47-1_xfmr_91,0.000000,0.000000,-3.257833,-1.766149,0.000000,0.000000
R5-12-47-1_xfmr_92,0.298910,-0.180001,0.000000,0.000000,0.000000,0.000000
R5-12-47-1_xfmr_93,0.000000,0.000000,-2.389252,-1.309745,0.000000,0.000000
R5-12-47-1_xfmr_94,0.000000,0.000000,0.000000,0.000000,0.007310,0.351633
R5-12-47-1_xfmr_95,0.301091,-0.188233,0.000000,0.000000,0.000000,0.000000
R5-12-47-1_xfmr_96,0.000000,0.000000,-0.532521,-0.298577,0.000000,0.000000
R5-12-47-1_xfmr_97,0.000000,0.000000,0.000000,0.000000,0.004160,1.019923
R5-12-47-1_xfmr_98,0.298465,-0.176983,0.000000,0.000000,0.000000,0.000000
R5-12-47-1_xfmr_99,0.000000,0.000000,-0.302496,-0.170739,0.000000,0.000000
R5-12-47-1_xfmr_100,0.000000,0.000000,0.000000,0.000000,-0.335494,9.283610
R5-12-47-1_xfmr_101,0.000000,0.000000,0.000000,0.000000,0.410409,10.607101
R5-12-47-1_xfmr_102,0.000000,0.000000,-5.999218,-3.715185,0.000000,0.000000
R5-12-47-1_xfmr_103,0.000000,0.000000,-4.237212,-2.546391,0.000000,0.000000
R5-12-47-1_xfmr_104,0.000000,0.000000,0.000000,0.000000,0.392225,8.576070
R5-12-47-1_xfmr_105,0.000000,0.000000,0.000000,0.000000,0.623390,11.499479
R5-12-47-1_xfmr_106,0.000000,0.000000,0.000000,0.000000,0.146046,6.999421
R5-12-47-1_xfmr_107,5.087108,-3.040658,0.000000,0.000000,0.000000,0.000000
R5-12-47-1_xfmr_108,0.000000,0.000000,-0.310812,-0.169416,0.000000,0.000000
R5-12-47-1_xfmr_109,0.000000,0.000000,0.000000,0.000000,0.012162,0.357046
R5-12-47-1_xfmr_110,0.153202,-0.095127,0.000000,0.000000,0.000000,0.000000
R5-12-47-1_xfmr_111,0.000000,0.000000,-0.314371,-0.169380,0.000000,0.000000
R5-12-47-1_xfmr_112,0.000000,0.000000,0.000000,0.000000,0.038484,0.048665
R5-12-47-1_xfmr_113,1.736085,-1.001487,0.000000,0.000000,0.000000,0.000000
R5-12-47-1_xfmr_114,0.000000,0.000000,-1.731953,-1.016359,0.000000,0.000000
R5-12-47-1_xfmr_115,0.000000,0.000000,0.000000,0.000000,0.002620,2.030141
R5-12-47-1_xfmr_116,0.000000,0.000000,-5.241972,-3.218443,0.000000,0.000000
R5-12-47-1_xfmr_117,0.000000,0.000000,-6.140804,-3.388449,0.000000,0.000000
R5-12-47-1_xfmr_118,0.000000,0.000000,-3.544385,-2.028879,0.000000,0.000000
R5-12-47-1_xfmr_119,0.000000,0.000000,-5.636863,-3.108853,0.000000,0.000000
R5-12-47-1_xfmr_120,0.000000,0.000000,-4.467148,-2.460884,0.000000,0.000000
R5-12-47-1_xfmr_121,0.000000,0.000000,0.000000,0.000000,0.232659,10.174145
R5-12-47-1_xfmr_122,0.000000,0.000000,-4.270159,-2.351253,0.000000,0.000000
R5-12-47-1_xfmr_123,0.000000,0.000000,-3.577111,-1.969115,0.000000,0.000000
R5-12-47-1_xfmr_124,4.292532,-2.649273,0.000000,0.000000,0.000000,0.000000
R5-12-47-1_xfmr_125,9.226839,-5.673388,0.000000,0.000000,0.000000,0.000000
R5-12-47-1_xfmr_126,6.805293,-4.030642,0.000000,0.000000,0.000000,0.000000
R5-12-47-1_xfmr_127,5.032063,-3.084273,0.000000,0.000000,0.000000,0.000000
R5-12-47-1_xfmr_128,4.341047,-2.658089,0.000000,0.000000,0.000000,0.000000
R5-12-47-1_xfmr_129,0.000000,0.000000,0.000000,0.000000,0.007280,0.351644
R5-12-47-1_xfmr_130,2.818273,-1.733186,0.000000,0.000000,0.000000,0.000000
R5-12-47-1_xfmr_131,0.000000,0.000000,0.000000,0.000000,0.007308,0.351633
R5-12-47-1_xfmr_132,0.000000,0.000000,0.000000,0.000000,0.118938,3.544631
R5-12-47-1_xfmr_133,0.000000,0.000000,0.000000,0.000000,0.157160,4.883492
R5-12-47-1_xfmr_134,0.000000,0.000000,0.000000,0.000000,0.011932,2.467675
R5-12-47-1_xfmr_135,0.000000,0.000000,0.000000,0.000000,0.200969,6.645725
R5-12-47-1_xfmr_136,0.000000,0.000000,-4.881528,-2.653220,0.000000,0.000000
R5-12-47-1_xfmr_137,0.000000,0.000000,-14.655421,-7.846961,0.000000,0.000000
R5-12-47-1_xfmr_138,0.000000,0.000000,-4.541220,-2.481698,0.000000,0.000000
R5-12-47-1_xfmr_139,0.000000,0.000000,-3.457127,-1.882183,0.000000,0.000000
R5-12-47-1_xfmr_140,0.000000,0.000000,-0.307009,-0.170373,0.000000,0.000000
R5-12-47-1_xfmr_141,0.000000,0.000000,0.000000,0.000000,0.340018,9.502915
R5-12-47-1_xfmr_142,0.000000,0.000000,-0.306970,-0.170340,0.000000,0.000000
R5-12-47-1_xfmr_143,0.000000,0.000000,0.000000,0.000000,0.242418,7.394799
R5-12-47-1_xfmr_144,5.317096,-3.280190,0.000000,0.000000,0.000000,0.000000
R5-12-47-1_xfmr_145,0.000000,0.000000,-0.374634,0.023887,0.000000,0.000000
R5-12-47-1_xfmr_146,0.000000,0.000000,0.000000,0.000000,0.047348,6.276831
R5-12-47-1_xfmr_147,0.000000,0.000000,-6.386301,-3.489869,0.000000,0.000000
R5-12-47-1_xfmr_148,0.000000,0.000000,0.000000,0.000000,0.008747,0.353140
R5-12-47-1_xfmr_149,0.000000,0.000000,0.000000,0.000000,0.253760,7.809484
R5-12-47-1_xfmr_150,0.000000,0.000000,0.000000,0.000000,0.287667,9.147745
R5-12-47-1_xfmr_151,0.000000,0.000000,0.000000,0.000000,0.081424,2.392150
R5-12-47-1_xfmr_152,0.000000,0.000000,0.000000,0.000000,0.237830,6.908865
R5-12-47-1_xfmr_153,4.333652,-2.691508,0.000000,0.000000,0.000000,0.000000
R5-12-47-1_xfmr_154,2.355862,-1.466284,0.000000,0.000000,0.000000,0.000000
R5-12-47-1_xfmr_155,13.277656,-8.272304,0.000000,0.000000,0.000000,0.000000
R5-12-47-1_xfmr_156,0.000000,0.000000,-0.046708,-0.037654,0.000000,0.000000
R5-12-47-1_xfmr_157,2.899888,-1.799396,0.000000,0.000000,0.000000,0.000000
R5-12-47-1_xfmr_158,5.815638,-3.609896,0.000000,0.000000,0.000000,0.000000
R5-12-47-1_xfmr_159,3.565026,-2.218981,0.000000,0.000000,0.000000,0.000000
R5-12-47-1_xfmr_160,12.584615,-7.938226,0.000000,0.000000,0.000000,0.000000
R5-12-47-1_xfmr_161,0.000000,0.000000,0.000000,0.000000,0.408136,10.662259
R5-12-47-1_xfmr_162,0.000000,0.000000,0.000000,0.000000,0.350415,8.750692
R5-12-47-1_xfmr_163,0.000000,0.000000,0.000000,0.000000,0.233431,8.869272
R5-12-47-1_xfmr_164,0.000000,0.000000,0.000000,0.000000,0.125854,7.271733
R5-12-47-1_xfmr_165,0.000000,0.000000,-5.881351,-3.215715,0.000000,0.000000
R5-12-47-1_xfmr_166,5.135512,-3.157318,0.000000,0.000000,0.000000,0.000000
R5-12-47-1_xfmr_167,3.366777,-2.076878,0.000000,0.000000,0.000000,0.000000
R5-12-47-1_xfmr_168,3.406674,-2.105170,0.000000,0.000000,0.000000,0.000000
R5-12-47-1_xfmr_169,0.000000,0.000000,-5.063008,-2.743003,0.000000,0.000000
R5-12-47-1_xfmr_170,0.000000,0.000000,-2.196851,-1.191996,0.000000,0.000000
R5-12-47-1_xfmr_171,0.000000,0.000000,-5.175795,-2.846780,0.000000,0.000000
R5-12-47-1_xfmr_172,0.000000,0.000000,-6.197910,-3.377583,0.000000,0.000000
R5-12-47-1_xfmr_173,0.000000,0.000000,-5.680415,-3.087675,0.000000,0.000000
R5-12-47-1_xfmr_174,0.000000,0.000000,0.000000,0.000000,0.232317,6.662181
R5-12-47-1_xfmr_175,0.000000,0.000000,0.000000,0.000000,0.225452,6.508424
R5-12-47-1_xfmr_176,0.000000,0.000000,0.000000,0.000000,0.213560,5.867015
R5-12-47-1_xfmr_177,0.000000,0.000000,0.000000,0.000000,0.183452,5.796441
R5-12-47-1_xfmr_178,0.000000,0.000000,-3.433884,-1.847785,0.000000,0.000000
R5-12-47-1_xfmr_179,0.000000,0.000000,0.000000,0.000000,0.548944,11.979960
R5-12-47-1_xfmr_180,0.000000,0.000000,-10.972836,-5.886075,0.000000,0.000000
R5-12-47-1_xfmr_181,0.000000,0.000000,0.000000,0.000000,0.235999,6.399978
R5-12-47-1_xfmr_182,0.000000,0.000000,-5.261035,-2.837536,0.000000,0.000000
R5-12-47-1_xfmr_183,0.299973,-0.185953,0.000000,0.000000,0.000000,0.000000
R5-12-47-1_xfmr_184,0.000000,0.000000,-6.109405,-3.131429,0.000000,0.000000
R5-12-47-1_xfmr_185,0.000000,0.000000,0.000000,0.000000,0.012328,0.357296
R5-12-47-1_xfmr_186,71.679982,-49.645381,-78.702912,-37.840432,7.503926,88.076931
R5-12-47-1_xfmr_187,8.242396,-4.290104,0.000000,-0.000000,1.518400,2.263706
R5-12-47-1_xfmr_188,0.000000,0.000000,0.000000,0.000000,-0.000002,0.011807
R5-12-47-1_xfmr_189,1.682904,-1.139790,-1.826357,-0.901502,0.152317,2.054445
R5-12-47-1_xfmr_190,5.379756,-3.713162,-5.900497,-2.847150,0.551346,6.604189
R5-12-47-1_xfmr_191,3.391832,-2.450293,-3.574605,-1.749744,0.207105,4.237183
R5-12-47-1_xfmr_192,0.000000,0.000000,0.000000,0.000000,0.008328,0.338356
R5-12-47-1_xfmr_193,7.248757,-5.102361,-8.037416,-3.786808,0.832419,8.950255
R5-12-47-1_xfmr_194,4.875309,-3.355646,-5.339013,-2.584821,0.491142,5.979884
R5-12-47-1_xfmr_195,1.157468,-0.778856,-0.000000,0.000000,0.000000,-0.000000
R5-12-47-1_xfmr_196,4.802578,-4.757124,-3.723937,-1.929455,-0.956860,6.735397
R5-12-47-1_xfmr_197,3.935715,-2.712788,-4.313749,-2.084787,0.400506,4.829644
R5-12-47-1_xfmr_198,0.404918,-0.821414,-3.757381,-2.317713,-0.000000,-0.000000
R5-12-47-1_xfmr_199,0.000000,0.000000,0.000000,0.000000,0.025085,0.401611
R5-12-47-1_xfmr_200,2.325587,-1.547668,-0.000000,-0.000000,-0.000000,0.000000
R5-12-47-1_xfmr_201,3.723064,-1.375289,-2.524301,-1.529038,1.109067,1.658082
R5-12-47-1_xfmr_202,0.096264,-0.051542,-0.000000,0.000000,-0.000000,0.000000
R5-12-47-1_xfmr_203,0.104240,-0.054303,0.000000,0.000000,-0.000402,0.014564
R5-12-47-1_xfmr_204,0.000000,0.000000,0.000000,0.000000,-0.005752,0.185600
R5-12-47-1_xfmr_205,0.081602,-0.043278,0.000000,0.000000,0.000000,0.000000
R5-12-47-1_xfmr_206,-0.000000,0.000000,-0.374178,-0.138057,-0.037235,0.083835
R5-12-47-1_xfmr_207,2.268542,-1.510334,-0.228178,-0.344700,0.000000,0.000000
R5-12-47-1_xfmr_208,0.000000,0.000000,0.000000,0.000000,-0.006034,0.420282
R5-12-47-1_xfmr_209,0.000000,0.000000,0.000000,0.000000,0.008848,0.124703
R5-12-47-1_xfmr_210,0.000000,0.000000,-1.054905,-0.607723,0.000000,0.000000
R5-12-47-1_xfmr_211,0.000000,0.000000,-2.251172,-1.306934,0.000000,0.000000
R5-12-47-1_xfmr_212,0.156879,-0.083767,0.000000,0.000000,0.000000,0.000000
R5-12-47-1_xfmr_213,0.030711,-0.001837,0.000000,0.000000,0.022342,0.476918
R5-12-47-1_xfmr_214,0.132956,-0.079860,-0.001246,-0.001341,0.000000,0.000000
R5-12-47-1_xfmr_215,0.041211,-0.002856,-0.000000,-0.000000,0.016663,0.467056
R5-12-47-1_xfmr_216,0.000000,0.000000,0.000000,0.000000,-0.000371,0.065568
R5-12-47-1_xfmr_217,0.000000,-0.000000,-0.120200,-0.068950,-0.000000,0.000000
R5-12-47-1_xfmr_218,0.000000,0.000000,0.000000,0.000000,0.882864,8.770312
R5-12-47-1_xfmr_219,-0.000000,-0.000000,-0.247341,-0.153745,-0.010892,0.492593
R5-12-47-1_xfmr_220,11.546051,-7.921390,-12.661307,-6.128369,1.181467,14.146041
R5-12-47-1_xfmr_221,3.946733,-2.708091,-7.105471,-5.910205,3.167506,8.914613
R5-12-47-1_xfmr_222,7.438851,-4.075143,-0.000000,-0.000000,1.152412,1.707346
R5-12-47-1_xfmr_223,15.250902,-10.649892,-16.846584,-8.009730,1.688631,18.785756
R5-12-47-1_xfmr_224,8.756850,-11.147510,-14.052119,-2.105754,5.388070,13.327628
R5-12-47-1_xfmr_225,15.772385,-11.090430,-17.466390,-8.244750,1.792099,19.460880
R5-12-47-1_xfmr_226,4.619879,-0.431708,0.000000,0.000000,2.660742,3.979706
R5-12-47-1_xfmr_227,0.500449,-1.022367,-11.075328,-5.616467,0.000000,-0.000000
R5-12-47-1_xfmr_228,0.863142,-0.474846,-0.841130,-0.516706,-0.018335,0.998377
R5-12-47-1_xfmr_229,0.000000,0.000000,-0.038803,0.002251,-0.006931,0.683757
R5-12-47-1_xfmr_230,0.130634,-0.076551,-0.000372,-0.000374,0.000000,0.000000
R5-12-47-1_xfmr_231,10.215522,-7.128740,-11.277383,-5.367473,1.123283,12.580362
R5-12-47-1_xfmr_232,12.020517,-6.195449,0.000000,0.000000,2.233449,3.335485
R5-12-47-1_xfmr_233,-0.000000,-0.000000,-4.666004,-2.375032,-0.000000,-0.000000
